66308
  -OEChem-03262509343D

 20 19  0     1  0  0  0  0  0999 V2000
    0.2810   -1.6000   -0.2017 O   0  0  0  0  0  0  0  0  0  0  0  0
   -1.5789    1.4649    0.5525 O   0  0  0  0  0  0  0  0  0  0  0  0
    1.3567    0.8309   -1.2281 O   0  0  0  0  0  0  0  0  0  0  0  0
   -3.6562   -0.1352   -0.3246 O   0  0  0  0  0  0  0  0  0  0  0  0
    3.4958   -0.2981   -0.0751 O   0  0  0  0  0  0  0  0  0  0  0  0
    0.0453   -0.3312    0.4106 C   0  0  2  0  0  0  0  0  0  0  0  0
   -1.2905    0.2297   -0.1011 C   0  0  1  0  0  0  0  0  0  0  0  0
    1.2491    0.5897    0.1676 C   0  0  1  0  0  0  0  0  0  0  0  0
   -2.4526   -0.7340    0.1454 C   0  0  0  0  0  0  0  0  0  0  0  0
    2.5502   -0.0166    0.6546 C   0  0  0  0  0  0  0  0  0  0  0  0
   -0.0375   -0.5051    1.4914 H   0  0  0  0  0  0  0  0  0  0  0  0
   -1.2303    0.4356   -1.1765 H   0  0  0  0  0  0  0  0  0  0  0  0
    1.1194    1.5526    0.6710 H   0  0  0  0  0  0  0  0  0  0  0  0
   -2.5836   -0.9213    1.2158 H   0  0  0  0  0  0  0  0  0  0  0  0
   -2.3163   -1.6904   -0.3678 H   0  0  0  0  0  0  0  0  0  0  0  0
    1.0261   -2.0210    0.2591 H   0  0  0  0  0  0  0  0  0  0  0  0
    2.6091   -0.1912    1.7429 H   0  0  0  0  0  0  0  0  0  0  0  0
   -2.4304    1.7853    0.2090 H   0  0  0  0  0  0  0  0  0  0  0  0
    1.4005   -0.0304   -1.6780 H   0  0  0  0  0  0  0  0  0  0  0  0
   -3.5548    0.0136   -1.2802 H   0  0  0  0  0  0  0  0  0  0  0  0
  1  6  1  0  0  0  0
  1 16  1  0  0  0  0
  2  7  1  0  0  0  0
  2 18  1  0  0  0  0
  3  8  1  0  0  0  0
  3 19  1  0  0  0  0
  4  9  1  0  0  0  0
  4 20  1  0  0  0  0
  5 10  2  0  0  0  0
  6  7  1  0  0  0  0
  6  8  1  0  0  0  0
  6 11  1  0  0  0  0
  7  9  1  0  0  0  0
  7 12  1  0  0  0  0
  8 10  1  0  0  0  0
  8 13  1  0  0  0  0
  9 14  1  0  0  0  0
  9 15  1  0  0  0  0
 10 17  1  0  0  0  0
M  END
> <PUBCHEM_COMPOUND_CID>
66308

> <PUBCHEM_CONFORMER_RMSD>
0.6

> <PUBCHEM_CONFORMER_DIVERSEORDER>
3
20
19
16
11
18
8
7
4
6
10
21
5
15
13
9
12
1
17
14
2

> <PUBCHEM_MMFF94_PARTIAL_CHARGES>
15
1 -0.68
10 0.45
16 0.4
17 0.06
18 0.4
19 0.4
2 -0.68
20 0.4
3 -0.68
4 -0.68
5 -0.57
6 0.28
7 0.28
8 0.34
9 0.28

> <PUBCHEM_EFFECTIVE_ROTOR_COUNT>
4

> <PUBCHEM_PHARMACOPHORE_FEATURES>
9
1 1 acceptor
1 1 donor
1 2 acceptor
1 2 donor
1 3 acceptor
1 3 donor
1 4 acceptor
1 4 donor
1 5 acceptor

> <PUBCHEM_HEAVY_ATOM_COUNT>
10

> <PUBCHEM_ATOM_DEF_STEREO_COUNT>
3

> <PUBCHEM_ATOM_UDEF_STEREO_COUNT>
0

> <PUBCHEM_BOND_DEF_STEREO_COUNT>
0

> <PUBCHEM_BOND_UDEF_STEREO_COUNT>
0

> <PUBCHEM_ISOTOPIC_ATOM_COUNT>
0

> <PUBCHEM_COMPONENT_COUNT>
1

> <PUBCHEM_CACTVS_TAUTO_COUNT>
5

> <PUBCHEM_CONFORMER_ID>
0001030400000003

> <PUBCHEM_MMFF94_ENERGY>
14.3596

> <PUBCHEM_FEATURE_SELFOVERLAP>
45.697

> <PUBCHEM_SHAPE_FINGERPRINT>
10219947 1 18113899351266831622
11062470 55 14129055906945563859
12897270 3 18413386544849207659
12932741 1 14634878586114549624
12932764 1 16845281735864547472
14325111 11 18413669097736174160
14993402 34 18113340816835189958
15310529 11 13326583934014304243
21040471 1 18412832386525140162
23235685 24 18335696148188857091
23402539 116 17632283571508216285
23552423 10 18264214612313123219
29004967 10 15051741909989381154
5084963 1 18040712584435707752
57812782 119 17989484121668468546

> <PUBCHEM_SHAPE_MULTIPOLES>
176.45
4.9
1.14
0.8
0.51
0.04
-0.09
0.38
-0.07
0.21
0
-0.22
-0.13
-0.18

> <PUBCHEM_SHAPE_SELFOVERLAP>
331.34

> <PUBCHEM_SHAPE_VOLUME>
109

> <PUBCHEM_COORDINATE_TYPE>
2
5
10

$$$$
